OpenDSS/IEEETestCases/13Bus/IEEE13Nodeckt_632_elem_kVA.txt

  Bus   (node ref)  Node       V (kV)    Angle    p.u.   Base kV

632 ....... 1       2.4362 /_   -2.5    1.0143     4.160        1-2     4.2335 /_   28.1    1.0177
   -        2       2.4713 /_ -121.8    1.0289     4.160        2-3     4.2391 /_  -92.4     1.019
   -        3       2.4119 /_  117.8    1.0042     4.160        3-1     4.2048 /_  147.8    1.0108

CIRCUIT ELEMENT CURRENTS

(Currents into element from indicated bus)

Power Delivery Elements

  Bus         Phase    Magnitude, A     Angle      (Real)   +j  (Imag)

ELEMENT = "Line.650632"
RG60            1           562.58 /_  -28.7 =     493.49 +j   -270.11
RG60            2           419.03 /_ -141.3 =    -327.04 +j   -261.98
RG60            3           591.74 /_   93.4 =    -34.973 +j    590.71
RG60        Resid           143.95 /_ -156.0 =     -131.48 +j    -58.62
------------
632             1           562.58 /_  151.3 =    -493.49 +j    270.11
632             2           419.03 /_   38.7 =     327.04 +j    261.98
632             3           591.74 /_  -86.6 =     34.972 +j   -590.71
632         Resid           143.95 /_   24.0 =      131.48 +j     58.62


ELEMENT = "Line.632670"
632             1           481.89 /_  -27.2 =     428.77 +j   -219.93
632             2           218.05 /_ -135.2 =     -154.8 +j   -153.57
632             3           480.27 /_   99.6 =     -79.91 +j    473.57
632         Resid           218.35 /_ -152.7 =     -194.06 +j   -100.07
------------
670             1           481.89 /_  152.8 =    -428.77 +j    219.93
670             2           218.05 /_   44.8 =      154.8 +j    153.57
670             3           480.27 /_  -80.4 =      79.91 +j   -473.57
670         Resid           218.35 /_   27.3 =      194.06 +j    100.07


ELEMENT = "Line.632633"
632             1           81.894 /_  -37.8 =     64.719 +j    -50.18
632             2           61.932 /_ -159.1 =    -57.874 +j    -22.05
632             3           63.569 /_   80.4 =     10.603 +j    62.679
632         Resid           19.891 /_  151.3 =     -17.448 +j    9.5514
------------
633             1           81.894 /_  142.2 =    -64.719 +j     50.18
633             2           61.932 /_   20.9 =     57.874 +j     22.05
633             3           63.569 /_  -99.6 =    -10.603 +j   -62.679
633         Resid           19.891 /_  -28.7 =      17.448 +j   -9.5514


ELEMENT = "Line.632645"
632             3           64.377 /_   57.8 =     34.335 +j    54.456
632             2           143.31 /_ -142.9 =    -114.37 +j   -86.359
632         Resid           86.156 /_   21.7 =      80.032 +j    31.902
------------
645             3           64.377 /_ -122.2 =    -34.335 +j   -54.457
645             2           143.31 /_   37.1 =     114.37 +j    86.359
645         Resid           86.156 /_ -158.3 =     -80.032 +j   -31.902


= = = = = = = = = = = = = = = = = = =  = = = = = = = = = = =  = =

Power Conversion Elements

  Bus         Phase    Magnitude, A     Angle      (Real)   +j  (Imag)


CIRCUIT ELEMENT POWER FLOW

(Power Flow into element from indicated Bus)

  Bus       Phase     kW     +j   kvar           kVA           PF

ELEMENT = "Line.650632"     
632             1    -1230.1 +j    -604.36        1370.6      0.8975
632             2    -975.88 +j    -346.43        1035.6      0.9424
632             3      -1300 +j    -589.07        1427.2      0.9108
 TERMINAL TOTAL        -3506 +j    -1539.9        3829.2      0.9156
------------
ELEMENT = "Line.650632"     
RG60            1     1251.8 +j     684.81        1426.9      0.8773
RG60            2     972.79 +j      379.1          1044      0.9317
RG60            3     1342.1 +j     671.94        1500.9      0.8942
 TERMINAL TOTAL       3566.7 +j     1735.8        3966.7      0.8992
ELEMENT = "Line.632670"     
632             1     1067.2 +j     489.18          1174      0.9091
632             2     524.05 +j     125.53        538.87      0.9725
632             3     1100.5 +j     361.56        1158.3      0.9500
 TERMINAL TOTAL       2691.7 +j     976.27        2863.3      0.9401
------------
ELEMENT = "Line.632670"     
670             1    -1064.1 +j    -467.06        1162.1      0.9157
670             2       -526 +j    -123.92         540.4      0.9734
670             3    -1088.7 +j    -343.79        1141.7      0.9536
 TERMINAL TOTAL      -2678.7 +j    -934.78        2837.2      0.9442
ELEMENT = "Line.632633"     
632             1     162.91 +j     115.17        199.51      0.8166
632             2     121.61 +j     92.927        153.05      0.7946
632             3     121.85 +j     93.052        153.32      0.7948
 TERMINAL TOTAL       406.38 +j     301.15         505.8      0.8034
------------
ELEMENT = "Line.632633"     
633             1    -162.55 +j    -114.64        198.91      0.8172
633             2    -121.46 +j    -92.655        152.77      0.7951
633             3    -121.54 +j    -92.798        152.92      0.7948
 TERMINAL TOTAL      -405.55 +j     -300.1        504.51      0.8039
ELEMENT = "Line.632645"     
632             3      77.64 +j     134.46        155.27      0.5000
632             2     330.23 +j     127.98        354.16      0.9324
 TERMINAL TOTAL       407.87 +j     262.44        485.01      0.8409
------------
ELEMENT = "Line.632645"     
645             3    -77.431 +j    -134.24        154.97      0.4996
645             2    -327.67 +j     -125.8        350.99      0.9336
 TERMINAL TOTAL       -405.1 +j    -260.04        481.38      0.8415
= = = = = = = = = = = = = = = = = = =  = = = = = = = = = = =  = =

Power Conversion Elements

  Bus         Phase     kW   +j  kvar         kVA         PF

